/*---------------------------------------------------------------------------*\
| =========                 |                                                 |
| \\      /  F ield         | OpenFOAM: The Open Source CFD Toolbox           |
|  \\    /   O peration     | Version:  3.0.x                                 |
|   \\  /    A nd           | Web:      www.OpenFOAM.org                      |
|    \\/     M anipulation  |                                                 |
\*---------------------------------------------------------------------------*/
Build  : 3.0.x-4b5e129783d9
Exec   : ideasUnvToFoam -case /tmp/case /tmp/case/case.unv
Date   : Feb 10 2017
Time   : 09:30:31
Host   : "localhost.localdomain"
PID    : 10465
Case   : /tmp/case
nProcs : 1
sigFpe : Enabling floating point exception trapping (FOAM_SIGFPE).
fileModificationChecking : Monitoring run-time modified files using timeStampMaster
allowSystemOperations : Allowing user-supplied system call operations

// * * * * * * * * * * * * * * * * * * * * * * * * * * * * * * * * * * * * * //
Create time

Processing tag:164
Starting reading units at line 3.
l:1
units:"  SI: Meter (newton)"
unitType:2
Unit factors:
    Length scale       : 1
    Force scale        : 1
    Temperature scale  : 1
    Temperature offset : 273.15


Processing tag:2420
Skipping tag 2420 on line 9
Skipping section at line 9.

Processing tag:2411
Starting reading points at line 20.
Read 558 points.

Processing tag:2412
Starting reading cells at line 1139.
First occurrence of element type 11 for cell 1 at line 1140
First occurrence of element type 41 for cell 113 at line 1476
First occurrence of element type 111 for cell 1225 at line 3700
Read 1504 cells and 1112 boundary faces.

Processing tag:2467
Starting reading patches at line 6710.
For group 1 named inlet trying to read 54 patch face indices.
For group 2 named outlet trying to read 54 patch face indices.
For group 3 named wall trying to read 108 patch face indices.
For group 4 named slip trying to read 896 patch face indices.

Sorting boundary faces according to group (patch)
0: inlet is patch
1: outlet is patch
2: wall is patch
3: slip is patch

Constructing mesh with non-default patches of size:
    inlet	54
    outlet	54
    wall	108
    slip	896

End

